Version 4.1
SHEET 1 2596 680
WIRE 1056 -240 -352 -240
WIRE 1488 -240 1056 -240
WIRE -432 -128 -432 -240
WIRE -176 -128 -352 -128
WIRE 1024 -128 -176 -128
WIRE 1376 -128 1024 -128
WIRE 928 0 912 0
WIRE 1152 0 1008 0
WIRE 1200 0 1152 0
WIRE 1328 0 1280 0
WIRE 1392 0 1328 0
WIRE 1504 0 1472 0
WIRE -176 32 -176 -128
WIRE -176 32 -240 32
WIRE -96 32 -176 32
WIRE 1376 64 1376 -128
WIRE 1424 64 1376 64
WIRE -240 80 -240 32
WIRE 1024 80 1024 -128
WIRE 1024 80 1008 80
WIRE 2080 80 1888 80
WIRE 1008 96 1008 80
WIRE 1424 96 1424 64
WIRE 16 112 -96 112
WIRE 192 112 80 112
WIRE 816 112 784 112
WIRE 976 112 896 112
WIRE 1328 112 1328 0
WIRE 1392 112 1328 112
WIRE 192 128 192 112
WIRE 304 128 192 128
WIRE 1152 128 1152 64
WIRE 1152 128 1040 128
WIRE 1504 128 1504 0
WIRE 1504 128 1456 128
WIRE 1584 128 1504 128
WIRE 1680 128 1584 128
WIRE 1744 128 1680 128
WIRE 976 144 928 144
WIRE 1392 144 1328 144
WIRE -304 160 -368 160
WIRE -160 160 -240 160
WIRE 1056 160 1056 -240
WIRE 1056 160 1008 160
WIRE 1424 160 1424 144
WIRE 1152 176 1152 128
WIRE 192 192 192 128
WIRE 784 192 784 112
WIRE 1584 192 1584 128
WIRE -16 208 -96 208
WIRE 416 208 304 208
WIRE 1680 208 1680 128
WIRE -16 224 -16 208
WIRE 1424 224 1424 160
WIRE 1488 224 1488 -240
WIRE 1488 224 1424 224
WIRE 912 240 912 0
WIRE 960 240 912 240
WIRE 1152 240 1040 240
WIRE 1328 240 1328 144
WIRE 1328 240 1152 240
WIRE 1888 256 1888 176
WIRE -240 288 -240 240
WIRE -160 288 -240 288
WIRE -96 288 -160 288
WIRE -16 288 -96 288
WIRE 192 288 192 256
WIRE 304 288 192 288
WIRE -160 304 -160 288
WIRE -368 336 -368 160
WIRE 192 336 192 288
WIRE 192 336 -368 336
WIRE 1584 352 1584 272
WIRE 1680 352 1680 272
WIRE 1680 352 1584 352
WIRE -432 512 -432 -128
WIRE 416 512 416 208
WIRE 416 512 -432 512
WIRE 784 512 784 272
WIRE 784 512 416 512
WIRE 928 512 928 144
WIRE 928 512 784 512
WIRE 1680 512 1680 352
WIRE 1680 512 928 512
WIRE 1888 512 1888 336
WIRE 1888 512 1680 512
WIRE -432 576 -432 512
FLAG -160 304 0
FLAG -432 576 0
SYMBOL npn -160 112 R0
WINDOW 0 56 35 Left 2
WINDOW 3 54 64 Left 2
SYMATTR InstName Q1
SYMATTR Value 2N3904
SYMBOL res -256 64 R0
SYMATTR InstName R1
SYMATTR Value 47k
SYMBOL res -256 144 R0
SYMATTR InstName R2
SYMATTR Value 10k
SYMBOL res -112 192 R0
SYMATTR InstName R3
SYMATTR Value 1k
SYMBOL ind -112 16 R0
SYMATTR InstName L1
SYMATTR Value 1m
SYMATTR SpiceLine Rser=1m
SYMBOL cap -32 224 R0
SYMATTR InstName C1
SYMATTR Value 10µ
SYMBOL cap 80 96 R90
WINDOW 0 0 32 VBottom 2
WINDOW 3 32 32 VTop 2
SYMATTR InstName C2
SYMATTR Value 100n
SYMBOL cap 176 192 R0
SYMATTR InstName C3
SYMATTR Value 1n
SYMBOL ind 288 112 R0
SYMATTR InstName L2
SYMATTR Value 10µ
SYMATTR SpiceLine Rser=1m
SYMATTR Type ind
SYMBOL ind 288 192 R0
SYMATTR InstName L3
SYMATTR Value 10µ
SYMATTR SpiceLine Rser=1m
SYMATTR Type ind
SYMBOL cap -240 144 R90
WINDOW 0 0 32 VBottom 2
WINDOW 3 32 32 VTop 2
SYMATTR InstName C4
SYMATTR Value 100p
SYMBOL voltage -336 -128 R90
WINDOW 0 -32 56 VBottom 2
WINDOW 3 32 56 VTop 2
WINDOW 123 0 0 Left 0
WINDOW 39 0 0 Left 0
SYMATTR InstName Vcc
SYMATTR Value 8
SYMBOL res 1568 176 R0
SYMATTR InstName R4
SYMATTR Value 10k
SYMBOL ind 800 288 R180
WINDOW 0 36 80 Left 2
WINDOW 3 36 40 Left 2
SYMATTR InstName L4
SYMATTR Value 20µ
SYMATTR Type ind
SYMATTR SpiceLine Rser=1m
SYMBOL cap 1664 208 R0
SYMATTR InstName C5
SYMATTR Value 100µ
SYMBOL res 1840 112 R90
WINDOW 0 0 56 VBottom 2
WINDOW 3 32 56 VTop 2
SYMATTR InstName R5
SYMATTR Value 100k
SYMBOL npn 1824 80 R0
WINDOW 0 56 35 Left 2
WINDOW 3 54 64 Left 2
SYMATTR InstName Q2
SYMATTR Value 2N3904
SYMBOL res 1872 240 R0
SYMATTR InstName R6
SYMATTR Value 100k
SYMBOL res 912 96 R90
WINDOW 0 0 56 VBottom 2
WINDOW 3 32 56 VTop 2
SYMATTR InstName R7
SYMATTR Value 100
SYMBOL res 1296 -16 R90
WINDOW 0 0 56 VBottom 2
WINDOW 3 32 56 VTop 2
SYMATTR InstName R8
SYMATTR Value 100
SYMBOL res 1488 -16 R90
WINDOW 0 0 56 VBottom 2
WINDOW 3 32 56 VTop 2
SYMATTR InstName R9
SYMATTR Value 100
SYMBOL res 1056 224 R90
WINDOW 0 0 56 VBottom 2
WINDOW 3 32 56 VTop 2
SYMATTR InstName R10
SYMATTR Value 100
SYMBOL res 1024 -16 R90
WINDOW 0 0 56 VBottom 2
WINDOW 3 32 56 VTop 2
SYMATTR InstName R11
SYMATTR Value 100
SYMBOL OpAmps\\LT1078 1008 64 R0
SYMATTR InstName U1
SYMBOL OpAmps\\LT1078 1424 64 R0
SYMATTR InstName U2
SYMBOL voltage -336 -240 R90
WINDOW 0 -32 56 VBottom 2
WINDOW 3 32 56 VTop 2
WINDOW 123 0 0 Left 0
WINDOW 39 0 0 Left 0
SYMATTR InstName -Vcc
SYMATTR Value -8
SYMBOL diode 1136 0 R0
SYMATTR InstName D3
SYMBOL diode 1136 176 R0
SYMATTR InstName D4
TEXT -448 344 Left 2 !.tran 10ms
TEXT 488 224 Left 2 !K1 L2 L3 L4 {k_val}
TEXT 456 88 Left 2 ;Rubber-Coir Substrate
TEXT 448 368 Left 2 !.step param k_val 0 1 0.2
RECTANGLE Normal 720 336 448 112 2
